[TITLE]


[JUNCTIONS]
;ID              	Elev        	Demand      	Pattern         
 10391418        	89.920000   	0.000000    	                	;
 11078108a       	89.591141   	0.000000    	                	;
 11078108b       	89.591141   	0.000000    	                	;
 11078201a       	89.564169   	0.000000    	                	;
 11078201b       	89.564169   	0.000000    	                	;
 11078255a       	89.990050   	0.000000    	                	;
 11078255b       	89.990050   	0.000000    	                	;
 11550995a       	90.742810   	0.000000    	                	;
 11550995b       	90.740000   	0.000000    	                	;
 11551022a       	90.827350   	0.000000    	                	;
 11551022b       	90.827350   	0.000000    	                	;
 woodland_out    	95.196      	0.000000    	                	;
 woodland_in     	95.196      	0.000000    	                	;
 11587273a       	90.360000   	0.000000    	                	;
 11587273b       	90.360000   	0.000000    	                	;
 11614786a       	90.710000   	0.000000    	                	;
 11614786b       	90.712328   	0.000000    	                	;
 11655596b       	90.820000   	0.000000    	                	;
 11710647        	48.730000   	0.000000    	                	;
 11710669        	74.760000   	0.000000    	                	;
 11710757        	40.740000   	0.000000    	                	;
 11804254        	90.380000   	0.000000    	                	;
 11804270        	94.310000   	0.000000    	                	;
 11828270        	60.440333   	0.135417    	Below_Stoke     	;
 11864062        	62.982180   	0.057292    	Below_Stoke     	;
 11882850        	52.239098   	0.000000    	                	;
 11899868        	47.893400   	0.062500    	Below_Stoke     	;
 11906082        	61.473963   	0.098958    	Below_Stoke     	;
 11910554        	24.000000   	0.067708    	Below_Stoke     	;
 11938852        	54.937600   	0.067708    	Below_Stoke     	;
 12041991        	28.170000   	0.057292    	Below_Stoke     	;
 12042399        	48.490000   	0.000000    	                	;
 12042441        	48.550000   	0.015625    	Lodge           	;
 12042447        	45.330000   	0.057292    	Lodge           	;
 12042453        	49.580000   	0.041667    	Lodge           	;
 12042459        	46.000000   	0.093750    	Lodge           	;
 12042465        	38.070000   	0.098958    	Below_Stoke     	;
 12042471        	37.970000   	0.104167    	Below_Stoke     	;
 12042477        	51.000000   	0.000000    	                	;
 12042483        	51.010000   	0.067708    	Below_Stoke     	;
 12042507        	40.970000   	0.125000    	Below_Stoke     	;
 12042519        	43.060000   	0.000000    	                	;
 12042525        	44.390000   	0.000000    	                	;
 12042543        	17.590000   	0.072917    	Below_Stoke     	;
 12042555        	15.080000   	0.072917    	Below_Stoke     	;
 12042561        	15.130000   	0.000000    	                	;
 12042567        	54.140000   	0.000000    	                	;
 12042573        	45.650000   	0.000000    	                	;
 12042579        	45.570000   	0.000000    	                	;
 12042585        	46.150000   	0.000000    	                	;
 12042591        	47.250000   	0.000000    	                	;
 12042597        	51.000000   	0.000000    	                	;
 12042603        	46.600000   	0.046875    	Below_Stoke     	;
 12042609        	51.000000   	0.052083    	Below_Stoke     	;
 12042621        	47.860000   	0.072917    	Below_Stoke     	;
 12042627        	48.340000   	0.000000    	                	;
 12042633        	47.730000   	0.000000    	                	;
 12042639        	48.570000   	0.000000    	                	;
 12042645        	50.880000   	0.057292    	Below_Stoke     	;
 12042651        	49.920000   	0.062500    	Below_Stoke     	;
 12042657        	51.000000   	0.062500    	Below_Stoke     	;
 12042663        	51.000000   	0.057292    	Below_Stoke     	;
 12042669        	41.260000   	0.010417    	8315            	;
 12042675        	41.990000   	0.005208    	8315            	;
 12042681        	41.050000   	0.057292    	8315            	;
 12042687        	41.990000   	0.052083    	8315            	;
 12042693        	40.970000   	0.005208    	8315            	;
 12042699        	42.000000   	0.010417    	8315            	;
 12042705        	40.560000   	0.015625    	8315            	;
 12042711        	24.000000   	0.000000    	                	;
 12042717        	16.430000   	0.046875    	Below_Stoke     	;
 12042723        	24.000000   	0.000000    	                	;
 12042729        	27.600000   	0.000000    	                	;
 12042741        	39.470000   	0.000000    	                	;
 12042747        	65.020000   	0.000000    	                	;
 12042765        	66.000000   	0.026042    	Above_Stoke     	;
 12042785        	65.540000   	0.000000    	                	;
 12042791        	69.470000   	0.000000    	                	;
 12042813        	59.000000   	0.000000    	                	;
 12042987        	65.380000   	0.005208    	DMA_2005        	;
 12042993        	62.620000   	0.000000    	                	;
 12042999        	63.400000   	0.020833    	DMA_2005        	;
 12043005        	62.560000   	0.005208    	DMA_2005        	;
 12043011        	76.230000   	0.026042    	DMA_2005        	;
 12043017        	75.580000   	0.046875    	DMA_2005        	;
 12043023        	72.560000   	0.078125    	DMA_2005        	;
 12043029        	61.730000   	0.000000    	                	;
 12043035        	62.800000   	0.000000    	                	;
 12043041        	62.010000   	0.000000    	                	;
 12043047        	63.460000   	0.041667    	DMA_2005        	;
 12043053        	56.800000   	0.026042    	Lodge           	;
 12043059        	58.170000   	0.010417    	Lodge           	;
 12043065        	58.140000   	0.000000    	                	;
 12043083        	56.640000   	0.072917    	Lodge           	;
 12043089        	52.430000   	0.062500    	Lodge           	;
 12043095        	52.730000   	0.083333    	Lodge           	;
 12043107        	56.680000   	0.052083    	Lodge           	;
 12043113        	58.660000   	0.078125    	Lodge           	;
 12043119        	63.700000   	0.098958    	DMA_2005        	;
 12043125        	59.000000   	0.072917    	DMA_2005        	;
 12043131        	58.380000   	0.036458    	DMA_2005        	;
 12043137        	64.000000   	0.026042    	DMA_2005        	;
 12043143        	65.670000   	0.020833    	DMA_2005        	;
 12043149        	64.990000   	0.036458    	DMA_2005        	;
 12043155        	69.720000   	0.031250    	DMA_2005        	;
 12043161        	62.950000   	0.135417    	DMA_2005        	;
 12043167        	65.470000   	0.119792    	DMA_2005        	;
 12043173        	66.000000   	0.000000    	                	;
 12043179        	66.000000   	0.036458    	DMA_2005        	;
 12043185        	66.000000   	0.145833    	DMA_2005        	;
 12043191        	52.530000   	0.041667    	Lodge           	;
 12043197        	58.350000   	0.036458    	Lodge           	;
 12043203        	48.970000   	0.119792    	Lodge           	;
 12043209        	57.740000   	0.000000    	                	;
 12043215        	54.710000   	0.000000    	                	;
 12043221        	57.140000   	0.015625    	Lodge           	;
 12043227        	56.000000   	0.098958    	Lodge           	;
 12043233        	54.900000   	0.010417    	Lodge           	;
 12043239        	49.650000   	0.000000    	                	;
 12043245        	52.260000   	0.000000    	                	;
 12043251        	52.300000   	0.000000    	                	;
 12043257        	52.320000   	0.031250    	Lodge           	;
 12043263        	60.212      	0.000000    	                	;
 12043269        	60.450000   	0.041667    	Lodge           	;
 12043275        	56.630000   	0.052083    	Lodge           	;
 12043281        	54.470000   	0.041667    	Lodge           	;
 12043287        	55.450000   	0.000000    	                	;
 12043293        	55.070000   	0.000000    	                	;
 12043305        	54.240000   	0.067708    	Lodge           	;
 12043311        	56.000000   	0.005208    	Lodge           	;
 12043317        	55.990000   	0.005208    	Lodge           	;
 12043323        	56.000000   	0.000000    	                	;
 12043329        	56.000000   	0.000000    	                	;
 12043335        	54.480000   	0.000000    	                	;
 12043341        	54.420000   	0.000000    	                	;
 12043347        	54.340000   	0.000000    	                	;
 12043353        	54.510000   	0.000000    	                	;
 12043359        	54.200000   	0.052083    	Below_Stoke     	;
 12043365        	54.050000   	0.046875    	Below_Stoke     	;
 12043371        	53.960000   	0.000000    	                	;
 12043377        	53.380000   	0.046875    	Below_Stoke     	;
 12043383        	48.870000   	0.000000    	                	;
 12043389        	43.650000   	0.036458    	8315            	;
 12043395        	41.100000   	0.062500    	8315            	;
 12043401        	42.690000   	0.072917    	Below_Stoke     	;
 12043407        	40.570000   	0.104167    	Below_Stoke     	;
 12043413        	43.230000   	0.140625    	Below_Stoke     	;
 12043419        	41.520000   	0.088542    	Below_Stoke     	;
 12043425        	43.830000   	0.067708    	Below_Stoke     	;
 12043431        	41.750000   	0.109375    	Below_Stoke     	;
 12043437        	44.010000   	0.114583    	Below_Stoke     	;
 12043443        	43.650000   	0.088542    	Below_Stoke     	;
 12043449        	40.870000   	0.104167    	Below_Stoke     	;
 12043455        	45.060000   	0.000000    	                	;
 12043461        	45.000000   	0.109375    	Below_Stoke     	;
 12043467        	44.140000   	0.067708    	Below_Stoke     	;
 12043473        	44.640000   	0.078125    	Below_Stoke     	;
 12043479        	45.000000   	0.072917    	Below_Stoke     	;
 12043485        	44.660000   	0.000000    	                	;
 12043491        	44.300000   	0.088542    	Below_Stoke     	;
 12043497        	44.300000   	0.078125    	Below_Stoke     	;
 12043503        	43.600000   	0.000000    	                	;
 12043509        	44.100000   	0.000000    	                	;
 12043515        	43.620000   	0.000000    	                	;
 12043521        	44.100000   	0.067708    	Below_Stoke     	;
 12043527        	44.970000   	0.083333    	Below_Stoke     	;
 12043533        	44.040000   	0.088542    	Below_Stoke     	;
 12043539        	46.020000   	0.067708    	Below_Stoke     	;
 12043545        	46.000000   	0.088542    	Below_Stoke     	;
 12043551        	42.720000   	0.000000    	                	;
 12043557        	43.200000   	0.000000    	                	;
 12043563        	43.500000   	0.000000    	                	;
 12043641        	66.300000   	0.000000    	                	;
 12043647        	71.000000   	0.000000    	                	;
 12043653        	66.330000   	0.000000    	                	;
 12043659        	65.360000   	0.000000    	                	;
 12043665        	63.680000   	0.005208    	DMA_2005        	;
 12043671        	66.000000   	0.000000    	                	;
 12043677        	65.560000   	0.005208    	DMA_2005        	;
 12043683        	65.560000   	0.000000    	                	;
 12043689        	67.560000   	0.005208    	DMA_2005        	;
 12043695        	68.580000   	0.000000    	                	;
 12043701        	66.950000   	0.005208    	DMA_2005        	;
 12043707        	69.340000   	0.020833    	DMA_2005        	;
 12043713        	69.410000   	0.000000    	                	;
 12043719        	69.470000   	0.015625    	DMA_2005        	;
 12043725        	70.990000   	0.005208    	DMA_2005        	;
 12043731        	67.180000   	0.057292    	DMA_2005        	;
 12043737        	68.700000   	0.031250    	DMA_2005        	;
 12043743        	68.670000   	0.130208    	DMA_2005        	;
 12043749        	72.150000   	0.000000    	                	;
 12043755        	70.250000   	0.000000    	                	;
 12043761        	75.270000   	0.031250    	DMA_2005        	;
 12043767        	75.650000   	0.020833    	DMA_2005        	;
 12043773        	75.970000   	0.046875    	DMA_2005        	;
 12043779        	69.540000   	0.000000    	                	;
 12043785        	72.250000   	0.020833    	DMA_2005        	;
 12043791        	75.760000   	0.010417    	DMA_2005        	;
 12043797        	75.550000   	0.005208    	DMA_2005        	;
 12043803        	75.650000   	0.026042    	DMA_2005        	;
 12043809        	75.680000   	0.010417    	DMA_2005        	;
 12043815        	73.560000   	0.000000    	                	;
 12043821        	74.160000   	0.000000    	                	;
 12043827        	74.890000   	0.000000    	                	;
 12043833        	65.430000   	0.005208    	DMA_2005        	;
 12043839        	65.430000   	0.000000    	                	;
 12043845        	55.880000   	0.072917    	Below_Stoke     	;
 12043851        	59.630000   	0.083333    	Below_Stoke     	;
 12043857        	59.500000   	0.046875    	Below_Stoke     	;
 12043863        	57.800000   	0.046875    	Below_Stoke     	;
 12043869        	59.590000   	0.098958    	Below_Stoke     	;
 12043875        	58.610000   	0.052083    	Below_Stoke     	;
 12043887        	58.680000   	0.062500    	Below_Stoke     	;
 12043899        	59.840000   	0.109375    	Below_Stoke     	;
 12043905        	60.850000   	0.093750    	Below_Stoke     	;
 12043911        	63.300000   	0.000000    	                	;
 12043917        	70.390000   	0.036458    	DMA_2005        	;
 12043923        	69.500000   	0.000000    	                	;
 12043929        	65.300000   	0.010417    	DMA_2005        	;
 12043935        	57.740000   	0.057292    	Lodge           	;
 12043941        	58.390000   	0.005208    	Lodge           	;
 12043947        	60.210000   	0.036458    	Lodge           	;
 12043953        	59.830000   	0.000000    	                	;
 12043959        	55.420000   	0.036458    	Lodge           	;
 12043965        	57.420000   	0.041667    	Lodge           	;
 12043971        	56.810000   	0.078125    	Lodge           	;
 12043977        	57.090000   	0.000000    	                	;
 12043983        	58.820000   	0.026042    	Lodge           	;
 12043989        	53.800000   	0.067708    	Below_Stoke     	;
 12043995        	53.150000   	0.000000    	                	;
 12044001        	53.780000   	0.000000    	                	;
 12044007        	53.620000   	0.000000    	                	;
 12044013        	53.220000   	0.000000    	                	;
 12044019        	61.000000   	0.072917    	Below_Stoke     	;
 12044025        	57.600000   	0.119792    	Below_Stoke     	;
 12044031        	55.130000   	0.098958    	Below_Stoke     	;
 12044037        	59.360000   	0.062500    	Below_Stoke     	;
 12044043        	59.610000   	0.083333    	Below_Stoke     	;
 12044049        	59.650000   	0.041667    	Below_Stoke     	;
 12044055        	60.770000   	0.067708    	Below_Stoke     	;
 12044061        	59.190000   	0.098958    	Below_Stoke     	;
 12044067        	60.510000   	0.062500    	Below_Stoke     	;
 12044073        	59.620000   	0.067708    	Below_Stoke     	;
 12044079        	60.420000   	0.078125    	Below_Stoke     	;
 12044085        	60.950000   	0.109375    	Below_Stoke     	;
 12044091        	60.470000   	0.083333    	Below_Stoke     	;
 12044097        	57.390000   	0.000000    	                	;
 12044103        	56.390000   	0.057292    	Below_Stoke     	;
 12044109        	53.860000   	0.062500    	Below_Stoke     	;
 12044115        	56.310000   	0.052083    	Below_Stoke     	;
 12044121        	50.560000   	0.000000    	                	;
 12044127        	51.890000   	0.078125    	Below_Stoke     	;
 12044133        	50.730000   	0.046875    	Below_Stoke     	;
 12044139        	50.450000   	0.000000    	                	;
 12044145        	43.870000   	0.000000    	                	;
 12044151        	45.440000   	0.000000    	                	;
 12044157        	46.000000   	0.067708    	Below_Stoke     	;
 12044163        	46.000000   	0.083333    	Below_Stoke     	;
 12044169        	44.100000   	0.119792    	Below_Stoke     	;
 12044175        	42.220000   	0.000000    	                	;
 12044247        	46.000000   	0.104167    	Below_Stoke     	;
 12044253        	46.000000   	0.072917    	Below_Stoke     	;
 12044259        	43.910000   	0.067708    	Below_Stoke     	;
 12044313        	47.370000   	0.000000    	                	;
 12044341        	69.590000   	0.005208    	DMA_2005        	;
 12044347        	75.630000   	0.015625    	DMA_2005        	;
 12044353        	74.150000   	0.010417    	DMA_2005        	;
 12044359        	74.550000   	0.015625    	DMA_2005        	;
 12044365        	74.940000   	0.031250    	DMA_2005        	;
 12044371        	73.900000   	0.130208    	DMA_2005        	;
 12044377        	73.840000   	0.000000    	                	;
 12044383        	73.960000   	0.020833    	DMA_2005        	;
 12044389        	69.760000   	0.000000    	                	;
 12044395        	69.250000   	0.067708    	2332            	;
 12044401        	72.130000   	0.083333    	2332            	;
 12044407        	71.500000   	0.072917    	2332            	;
 12044413        	74.000000   	0.130208    	2332            	;
 12044419        	76.650000   	0.119792    	2332            	;
 12044425        	87.900000   	0.031250    	2332            	;
 12044431        	80.410000   	0.005208    	2332            	;
 12044437        	80.400000   	0.031250    	2332            	;
 12044443        	83.520000   	0.026042    	2332            	;
 12044449        	80.830000   	0.026042    	2332            	;
 12044455        	83.640000   	0.083333    	2332            	;
 12044461        	77.310000   	0.052083    	DMA_2005        	;
 12044467        	78.860000   	0.088542    	DMA_2005        	;
 12044473        	77.390000   	0.026042    	DMA_2005        	;
 12044479        	76.220000   	0.000000    	                	;
 12044485        	76.400000   	0.000000    	                	;
 12044491        	76.340000   	0.000000    	                	;
 12044497        	76.710000   	0.015625    	DMA_2005        	;
 12044503        	76.410000   	0.000000    	                	;
 12044509        	76.490000   	0.000000    	                	;
 12044605        	81.460000   	0.005208    	2332            	;
 12044611        	70.050000   	0.041667    	2332            	;
 12044617        	68.310000   	0.031250    	2332            	;
 12044623        	52.380000   	0.067708    	Below_Stoke     	;
 12044629        	55.730000   	0.000000    	                	;
 12044635        	55.870000   	0.062500    	Below_Stoke     	;
 12044641        	55.870000   	0.062500    	Below_Stoke     	;
 12044647        	56.840000   	0.046875    	Below_Stoke     	;
 12044653        	55.410000   	0.000000    	                	;
 12044659        	58.160000   	0.041667    	Below_Stoke     	;
 12044665        	59.810000   	0.057292    	Below_Stoke     	;
 12044671        	60.990000   	0.000000    	                	;
 12044677        	62.650000   	0.119792    	Below_Stoke     	;
 12044743        	51.920000   	0.062500    	Below_Stoke     	;
 12044749        	53.360000   	0.062500    	Below_Stoke     	;
 12044755        	54.120000   	0.062500    	Below_Stoke     	;
 12045021        	87.660000   	0.031250    	2332            	;
 12045033        	87.250000   	0.057292    	2332            	;
 12045057        	83.910000   	0.015625    	2332            	;
 12045063        	87.030000   	0.098958    	2332            	;
 12045069        	74.880000   	0.093750    	2332            	;
 12045075        	73.280000   	0.031250    	2332            	;
 12045081        	75.440000   	0.020833    	2332            	;
 12045087        	73.810000   	0.072917    	2332            	;
 12045093        	77.810000   	0.036458    	2332            	;
 12045099        	78.080000   	0.041667    	2332            	;
 12045105        	77.300000   	0.088542    	2332            	;
 12045111        	81.300000   	0.036458    	2332            	;
 12045117        	84.360000   	0.067708    	2332            	;
 12045123        	83.900000   	0.031250    	2332            	;
 12045129        	85.720000   	0.026042    	2332            	;
 12047843        	66.000000   	0.041667    	DMA_2005        	;
 12047849        	64.000000   	0.015625    	DMA_2005        	;
 12047855        	64.000000   	0.026042    	DMA_2005        	;
 12047905        	66.000000   	0.000000    	                	;
 12048485        	72.540000   	0.031250    	DMA_2005        	;
 12048497        	72.230000   	0.020833    	DMA_2005        	;
 12048503        	64.960000   	0.000000    	                	;
 12048509        	65.430000   	0.104167    	DMA_2005        	;
 12048515        	68.410000   	0.010417    	DMA_2005        	;
 12048521        	70.860000   	0.041667    	DMA_2005        	;
 12048533        	67.810000   	0.000000    	                	;
 12048539        	68.160000   	0.031250    	DMA_2005        	;
 12048545        	68.360000   	0.031250    	DMA_2005        	;
 12048551        	66.870000   	0.020833    	DMA_2005        	;
 12080711        	89.570000   	0.026042    	DMA_2005        	;
 12080717        	80.370000   	0.015625    	DMA_2005        	;
 12080723        	78.900000   	0.088542    	DMA_2005        	;
 12080729        	85.380000   	0.036458    	DMA_2005        	;
 12080735        	86.740000   	0.062500    	2332            	;
 12080741        	85.620000   	0.093750    	2332            	;
 12080747        	85.790000   	0.000000    	                	;
 12080753        	83.210000   	0.078125    	2332            	;
 12080759        	80.420000   	0.036458    	2332            	;
 12080765        	82.850000   	0.000000    	                	;
 12080771        	75.770000   	0.072917    	DMA_2005        	;
 12080777        	75.800000   	0.067708    	DMA_2005        	;
 12080783        	76.330000   	0.015625    	DMA_2005        	;
 12080789        	78.030000   	0.052083    	DMA_2005        	;
 12081843        	87.320000   	0.020833    	2332            	;
 12081849        	87.260000   	0.010417    	2332            	;
 12091729        	49.990000   	0.093750    	Lodge           	;
 12091735        	56.110000   	0.031250    	Lodge           	;
 12091741        	56.080000   	0.036458    	Lodge           	;
 12091747        	42.740000   	0.046875    	Below_Stoke     	;
 12091753        	45.470000   	0.072917    	Below_Stoke     	;
 12091759        	44.590000   	0.000000    	                	;
 12091765        	62.380000   	0.000000    	                	;
 12091771        	61.270000   	0.000000    	                	;
 12091777        	61.660000   	0.005208    	DMA_2005        	;
 12091783        	58.990000   	0.000000    	                	;
 12091789        	53.670000   	0.020833    	Lodge           	;
 12091795        	55.250000   	0.088542    	Lodge           	;
 12091801        	49.150000   	0.000000    	                	;
 12091807        	48.640000   	0.005208    	Lodge           	;
 12091813        	54.180000   	0.000000    	                	;
 12091819        	54.140000   	0.000000    	                	;
 12091825        	45.000000   	0.000000    	                	;
 12091831        	44.230000   	0.000000    	                	;
 12091843        	67.870000   	0.078125    	2332            	;
 12091849        	80.940000   	0.036458    	2332            	;
 12091855        	79.700000   	0.067708    	2332            	;
 12091861        	75.870000   	0.052083    	2332            	;
 12093727        	78.510000   	0.088542    	DMA_2005        	;
 12093893        	66.000000   	0.072917    	DMA_2005        	;
 12098441        	57.560000   	0.062500    	Below_Stoke     	;
 12098483        	55.800000   	0.088542    	Below_Stoke     	;
 12098489        	60.030000   	0.130208    	Below_Stoke     	;
 12098495        	57.950000   	0.119792    	Below_Stoke     	;
 12098501        	59.810000   	0.031250    	Lodge           	;
 12098507        	64.520000   	0.104167    	DMA_2005        	;
 12098519        	71.000000   	0.067708    	2332            	;
 12098525        	66.400000   	0.036458    	DMA_2005        	;
 12098531        	80.760000   	0.046875    	2332            	;
 12098537        	84.500000   	0.072917    	2332            	;
 12098543        	80.870000   	0.067708    	2332            	;
 12098549        	79.620000   	0.031250    	2332            	;
 12098555        	84.290000   	0.020833    	DMA_2005        	;
 12098561        	89.270000   	0.000000    	                	;
 12098567        	74.440000   	0.072917    	DMA_2005        	;
 12098573        	80.280000   	0.057292    	DMA_2005        	;
 12098579        	80.690000   	0.015625    	2332            	;
 12098585        	80.590000   	0.067708    	DMA_2005        	;
 12098591        	80.450000   	0.057292    	DMA_2005        	;
 12098597        	80.520000   	0.114583    	DMA_2005        	;
 12098609        	79.450000   	0.062500    	DMA_2005        	;
 12098615        	74.590000   	0.000000    	                	;
 12098621        	76.180000   	0.052083    	DMA_2005        	;
 12098627        	71.780000   	0.000000    	                	;
 12098633        	75.480000   	0.010417    	DMA_2005        	;
 12098639        	64.490000   	0.130208    	DMA_2005        	;
 12098645        	66.000000   	0.072917    	DMA_2005        	;
 12098651        	70.870000   	0.031250    	DMA_2005        	;
 12098657        	67.910000   	0.015625    	DMA_2005        	;
 12098663        	70.670000   	0.000000    	                	;
 12098681        	72.780000   	0.005208    	DMA_2005        	;
 12099899        	41.860000   	0.067708    	Below_Stoke     	;
 12099905        	43.270000   	0.072917    	Below_Stoke     	;
 12099917        	37.230000   	0.000000    	                	;
 12099923        	42.290000   	0.072917    	Below_Stoke     	;
 12099947        	56.680000   	0.125000    	Lodge           	;
 12099953        	56.410000   	0.052083    	Lodge           	;
 12123577        	65.450000   	0.000000    	                	;
 12125053        	46.250000   	0.000000    	                	;
 12125059        	41.630000   	0.000000    	                	;
 12125065        	27.740000   	0.000000    	                	;
 12125071        	29.700000   	0.000000    	                	;
 12125097        	28.850000   	0.000000    	                	;
 12125103        	28.280000   	0.000000    	                	;
 12157781        	50.740000   	0.015625    	Lodge           	;
 12158911        	54.470000   	0.000000    	                	;
 12158917        	54.520000   	0.046875    	Below_Stoke     	;
 12158923        	55.100000   	0.046875    	Below_Stoke     	;
 12158929        	62.820000   	0.000000    	                	;
 12158935        	62.860000   	0.000000    	                	;
 12158941        	73.200000   	0.000000    	                	;
 12158947        	73.540000   	0.000000    	                	;
 stoke_in        	72.2        	0.000000    	                	;
 12158973        	41.190000   	0.000000    	                	;
 12158979        	41.980000   	0.000000    	                	;
 12158985        	47.160000   	0.000000    	                	;
 12161319        	60.990000   	0.000000    	                	;
 12161513        	90.720000   	0.000000    	                	;
 12162175        	62.600000   	0.000000    	                	;
 12162195        	42.110000   	0.104167    	Below_Stoke     	;
 12163797        	57.850000   	0.000000    	                	;
 12163803        	56.750000   	0.000000    	                	;
 12166621        	83.010000   	0.041667    	2332            	;
 12166627        	86.770000   	0.015625    	2332            	;
 12166633        	89.610000   	0.000000    	                	;
 12166639        	90.090000   	0.000000    	                	;
 12166645        	76.290000   	0.000000    	                	;
 12166651        	83.810000   	0.015625    	DMA_2005        	;
 12166657        	74.180000   	0.005208    	DMA_2005        	;
 12166663        	67.910000   	0.000000    	                	;
 12168743        	48.880000   	0.046875    	Below_Stoke     	;
 12168775        	73.440000   	0.000000    	                	;
 12168801        	54.110000   	0.000000    	                	;
 12170041        	24.000000   	0.000000    	                	;
 12183055        	45.630000   	0.000000    	                	;
 12189053        	79.790000   	0.000000    	                	;
 12189299        	75.950000   	0.000000    	                	;
 12192397        	73.570000   	0.000000    	                	;
 12195171        	64.800000   	0.000000    	                	;
 12195177        	66.000000   	0.000000    	                	;
 12195183        	66.000000   	0.000000    	                	;
 12196497        	70.010000   	0.031250    	DMA_2005        	;
 12196503        	80.730000   	0.000000    	                	;
 12197219        	56.080000   	0.000000    	                	;
 12197431        	80.470000   	0.000000    	                	;
 12198175        	65.110000   	0.026042    	Above_Stoke     	;
 12198665        	51.480000   	0.067708    	Below_Stoke     	;
 12201351        	55.570000   	0.041667    	Below_Stoke     	;
 12201357        	55.090000   	0.000000    	                	;
 12204223        	83.430000   	0.041667    	2332            	;
 12219003        	90.140000   	0.000000    	                	;
 12219009        	90.700000   	0.000000    	                	;
 12219015        	90.480000   	0.000000    	                	;
 12219033        	90.770000   	0.000000    	                	;
 12231557        	57.050000   	0.000000    	                	;
 12231617        	63.380000   	0.000000    	                	;